testData/ACTIVSg2000/full_texas2000_hr_4375_v33_mod.raw
0,   100.00, 33, 0, 1, 60.00     / PSS(R)E-33.12   THU, JUL 09 2020  10:21
THIS IS A SYNTHETIC POWER SYSTEM MODEL THAT DOES NOT REPRESE
DATA RESEARCH PROJECT AND CONTAINS NO CEII.
  1001,'ODESSA 2    ', 115.0000,1,   1,   9,   1,1.01415, -46.2459,1.10000,0.90000,1.10000,0.90000
  1002,'PRESIDIO    ', 115.0000,1,   1,   9,   1,1.02747, -47.8612,1.10000,0.90000,1.10000,0.90000
  1003,'O DONNEL    ', 115.0000,1,   1,   9,   1,1.02536, -37.7115,1.10000,0.90000,1.10000,0.90000
  1004,'O DONNEL    ', 230.0000,2,   1,   9,   1,1.02817, -38.0176,1.10000,0.90000,1.10000,0.90000
  1005,'BIG SPRI    ', 115.0000,1,   1,   9,   1,1.01880, -40.3273,1.10000,0.90000,1.10000,0.90000
  1006,'BIG SPRI    ',  13.8000,1,   1,   9,   1,1.01365, -39.5771,1.10000,0.90000,1.10000,0.90000
  1007,'VAN HORN    ', 115.0000,1,   1,   9,   1,1.03000, -47.2321,1.10000,0.90000,1.10000,0.90000
  1008,'IRAAN 2     ', 115.0000,1,   1,   9,   1,1.02092, -43.0147,1.10000,0.90000,1.10000,0.90000
  1009,'IRAAN 2     ',  13.8000,1,   1,   9,   1,1.01060, -41.7316,1.10000,0.90000,1.10000,0.90000
  1010,'PRESIDIO    ', 115.0000,1,   1,   9,   1,1.03000, -47.2390,1.10000,0.90000,1.10000,0.90000
  1011,'PRESIDIO    ',  22.0000,1,   1,   9,   1,1.03018, -47.1383,1.10000,0.90000,1.10000,0.90000
  1012,'SANDERSO    ', 115.0000,1,   1,   9,   1,1.03000, -52.6046,1.10000,0.90000,1.10000,0.90000
  1013,'MONAHANS    ', 115.0000,1,   1,   9,   1,1.01555, -43.2421,1.10000,0.90000,1.10000,0.90000
  1014,'GRANDFAL    ', 115.0000,1,   1,   9,   1,1.01943, -42.2924,1.10000,0.90000,1.10000,0.90000
  1015,'MARFA 0     ', 115.0000,1,   1,   9,   1,1.03374, -47.7228,1.10000,0.90000,1.10000,0.90000
  1016,'GARDEN C    ', 115.0000,1,   1,   9,   1,1.02481, -42.6146,1.10000,0.90000,1.10000,0.90000
  1017,'ODESSA 4    ', 115.0000,1,   1,   9,   1,1.00826, -46.5199,1.10000,0.90000,1.10000,0.90000
  1018,'NOTREES     ', 115.0000,1,   1,   9,   1,1.00586, -47.1850,1.10000,0.90000,1.10000,0.90000
  1019,'MIDLAND     ', 115.0000,1,   1,   9,   1,1.03000, -46.1650,1.10000,0.90000,1.10000,0.90000
  1020,'BIG SPRI    ', 115.0000,1,   1,   9,   1,1.03000, -41.5816,1.10000,0.90000,1.10000,0.90000
  1021,'BIG SPRI    ',  13.8000,2,   1,   9,   1,1.00861, -39.0467,1.10000,0.90000,1.10000,0.90000
  1022,'O DONNEL    ', 115.0000,1,   1,   9,   1,1.02650, -37.1758,1.10000,0.90000,1.10000,0.90000
  1023,'O DONNEL    ',  13.8000,2,   1,   9,   1,1.01000, -33.7590,1.10000,0.90000,1.10000,0.90000
  1024,'ODESSA 6    ', 115.0000,1,   1,   9,   1,1.00554, -47.7085,1.10000,0.90000,1.10000,0.90000
  1025,'BIG SPRI    ', 115.0000,1,   1,   9,   1,1.02416, -40.6818,1.10000,0.90000,1.10000,0.90000
  1026,'BIG SPRI    ',  13.8000,2,   1,   9,   1,1.00451, -37.9545,1.10000,0.90000,1.10000,0.90000
  1027,'MIDLAND     ', 115.0000,1,   1,   9,   1,1.03000, -46.8760,1.10000,0.90000,1.10000,0.90000
  1028,'COAHOMA     ', 115.0000,1,   1,   9,   1,1.03114, -37.3238,1.10000,0.90000,1.10000,0.90000
  1029,'MIDLAND     ', 115.0000,1,   1,   9,   1,1.02617, -47.4297,1.10000,0.90000,1.10000,0.90000
  1030,'ALPINE 0    ', 115.0000,1,   1,   9,   1,1.02823, -45.2856,1.10000,0.90000,1.10000,0.90000
  1031,'FORT DAV    ', 115.0000,1,   1,   9,   1,1.02393, -45.7153,1.10000,0.90000,1.10000,0.90000
  1032,'MCCAMEY     ', 115.0000,1,   1,   9,   1,1.01090, -43.2937,1.10000,0.90000,1.10000,0.90000
  1033,'MCCAMEY     ', 230.0000,2,   1,   9,   1,1.00797, -43.9482,1.10000,0.90000,1.10000,0.90000
  1034,'BIG SPRI    ', 115.0000,1,   1,   9,   1,1.01192, -40.3444,1.10000,0.90000,1.10000,0.90000
  1035,'BIG SPRI    ',  13.8000,1,   1,   9,   1,1.00181, -39.0642,1.10000,0.90000,1.10000,0.90000
  1036,'CRANE 0     ', 115.0000,1,   1,   9,   1,1.00385, -43.6610,1.10000,0.90000,1.10000,0.90000
  1037,'ODESSA 5    ', 115.0000,1,   1,   9,   1,1.00592, -46.8677,1.10000,0.90000,1.10000,0.90000
  1038,'FORT STO    ', 115.0000,1,   1,   9,   1,1.01865, -42.2811,1.10000,0.90000,1.10000,0.90000
  1039,'FORT STO    ',  22.0000,2,   1,   9,   1,1.00060, -40.1995,1.10000,0.90000,1.10000,0.90000
  1040,'ANDREWS     ', 115.0000,1,   1,   9,   1,1.00967, -48.0731,1.10000,0.90000,1.10000,0.90000
  1041,'FORSAN 0    ', 115.0000,1,   1,   9,   1,1.01060, -39.5295,1.10000,0.90000,1.10000,0.90000
  1042,'FORSAN 1    ',  13.8000,2,   1,   9,   1,1.00000, -36.5444,1.10000,0.90000,1.10000,0.90000
  1043,'FORSAN 2    ',  13.8000,1,   1,   9,   1,0.99999, -38.2785,1.10000,0.90000,1.10000,0.90000
  1044,'BIG LAKE    ', 115.0000,1,   1,   9,   1,1.02610, -48.0713,1.10000,0.90000,1.10000,0.90000
  1045,'MIDLAND     ', 115.0000,1,   1,   9,   1,1.01406, -47.2326,1.10000,0.90000,1.10000,0.90000
  1046,'OZONA 0     ', 115.0000,1,   1,   9,   1,1.03000, -49.5356,1.10000,0.90000,1.10000,0.90000
  1047,'MONAHANS    ', 115.0000,1,   1,   9,   1,1.01202, -41.3507,1.10000,0.90000,1.10000,0.90000
  1048,'MONAHANS    ',  18.0000,2,   1,   9,   1,1.00000, -37.6779,1.10000,0.90000,1.10000,0.90000
  1049,'MONAHANS    ',  18.0000,2,   1,   9,   1,1.00000, -34.8176,1.10000,0.90000,1.10000,0.90000
  1050,'MONAHANS    ',  18.0000,2,   1,   9,   1,1.01202, -41.3507,1.10000,0.90000,1.10000,0.90000
  1051,'MONAHANS    ',  18.0000,2,   1,   9,   1,1.01202, -41.3507,1.10000,0.90000,1.10000,0.90000
  1052,'MONAHANS    ',  18.0000,2,   1,   9,   1,1.01202, -41.3507,1.10000,0.90000,1.10000,0.90000
  1053,'MONAHANS    ', 230.0000,2,   1,   9,   1,1.00970, -41.6411,1.10000,0.90000,1.10000,0.90000
  1054,'STANTON     ', 115.0000,1,   1,   9,   1,1.01879, -43.2539,1.10000,0.90000,1.10000,0.90000
  1055,'ODONNELL    ', 115.0000,1,   1,   9,   1,1.01993, -38.6208,1.10000,0.90000,1.10000,0.90000
  1056,'LENORAH     ', 115.0000,1,   1,   9,   1,1.03000, -43.4197,1.10000,0.90000,1.10000,0.90000
  1057,'LENORAH     ',  18.0000,2,   1,   9,   1,1.00714, -40.0395,1.10000,0.90000,1.10000,0.90000
  1058,'IRAAN 3     ', 115.0000,1,   1,   9,   1,1.02643, -44.7185,1.10000,0.90000,1.10000,0.90000
  1059,'IRAAN 3     ',  22.0000,2,   1,   9,   1,1.02643, -44.7185,1.10000,0.90000,1.10000,0.90000
  1060,'IRAAN 3     ',  22.0000,2,   1,   9,   1,1.02643, -44.7185,1.10000,0.90000,1.10000,0.90000
  1061,'BIG SPRI    ', 115.0000,1,   1,   9,   1,1.02256, -40.4558,1.10000,0.90000,1.10000,0.90000
  1062,'BIG SPRI    ',  13.8000,1,   1,   9,   1,1.02259, -40.4373,1.10000,0.90000,1.10000,0.90000
  1063,'BIG SPRI    ',  13.8000,2,   1,   9,   1,1.02396, -38.1885,1.10000,0.90000,1.10000,0.90000
  1064,'ODESSA 3    ', 115.0000,1,   1,   9,   1,1.00919, -47.1877,1.10000,0.90000,1.10000,0.90000
  1065,'BIG SPRI    ', 115.0000,1,   1,   9,   1,1.01226, -39.6502,1.10000,0.90000,1.10000,0.90000
  1066,'BIG SPRI    ',  13.8000,2,   1,   9,   1,1.00000, -36.7499,1.10000,0.90000,1.10000,0.90000
  1067,'BIG SPRI    ', 115.0000,1,   1,   9,   1,1.01057, -40.0937,1.10000,0.90000,1.10000,0.90000
  1068,'MIDLAND     ', 115.0000,1,   1,   9,   1,0.99502, -45.2384,1.10000,0.90000,1.10000,0.90000
  1069,'IRAAN 1     ', 115.0000,1,   1,   9,   1,1.02595, -43.4256,1.10000,0.90000,1.10000,0.90000
  1070,'IRAAN 1     ',  13.8000,2,   1,   9,   1,1.04000, -41.7143,1.10000,0.90000,1.10000,0.90000
  1071,'ODESSA 1    ', 115.0000,1,   1,   9,   1,1.01925, -45.3874,1.10000,0.90000,1.10000,0.90000
  1072,'ODESSA 1    ',  18.0000,3,   1,   9,   1,1.01000, -43.3147,1.10000,0.90000,1.10000,0.90000
  1073,'ODESSA 1    ',  18.0000,2,   1,   9,   1,1.01000, -41.1350,1.10000,0.90000,1.10000,0.90000
  1074,'ODESSA 1    ',  18.0000,2,   1,   9,   1,1.01000, -41.3630,1.10000,0.90000,1.10000,0.90000
  1075,'ODESSA 1    ',  18.0000,2,   1,   9,   1,1.01000, -42.1676,1.10000,0.90000,1.10000,0.90000
  1076,'ODESSA 1    ',  18.0000,2,   1,   9,   1,1.01000, -43.7878,1.10000,0.90000,1.10000,0.90000
  1077,'ODESSA 1    ',  18.0000,2,   1,   9,   1,1.01000, -41.4880,1.10000,0.90000,1.10000,0.90000
  1078,'ODESSA 1    ',  18.0000,2,   1,   9,   1,1.01925, -45.3874,1.10000,0.90000,1.10000,0.90000
  1079,'ODESSA 1    ', 500.0000,2,   1,   9,   1,1.05333, -46.8913,1.10000,0.90000,1.10000,0.90000
  1080,'ODESSA 1    ',  18.0000,2,   1,   9,   1,1.01925, -45.3874,1.10000,0.90000,1.10000,0.90000
  1081,'ODESSA 1    ', 230.0000,2,   1,   9,   1,1.01234, -42.6672,1.10000,0.90000,1.10000,0.90000
  1082,'FORT STO    ', 115.0000,2,   1,   9,   1,1.01753, -41.8126,1.10000,0.90000,1.10000,0.90000
  1083,'FORT STO    ', 115.0000,1,   1,   9,   1,1.02603, -43.1967,1.10000,0.90000,1.10000,0.90000
  1084,'BIG SPRI    ', 115.0000,2,   1,   9,   1,1.03728, -42.8581,1.10000,0.90000,1.10000,0.90000
  1085,'KERMIT 0    ', 115.0000,1,   1,   9,   1,1.01563, -43.7630,1.10000,0.90000,1.10000,0.90000
  1086,'PECOS 0     ', 115.0000,1,   1,   9,   1,1.02715, -45.4032,1.10000,0.90000,1.10000,0.90000
  1087,'SHEFFIEL    ', 115.0000,1,   1,   9,   1,1.03010, -47.1203,1.10000,0.90000,1.10000,0.90000
  1088,'MCCAMEY     ', 115.0000,1,   1,   9,   1,0.99987, -43.4152,1.10000,0.90000,1.10000,0.90000
  1089,'LAMESA 0    ', 115.0000,1,   1,   9,   1,1.00583, -41.3787,1.10000,0.90000,1.10000,0.90000
  1090,'GOLDSMIT    ', 115.0000,1,   1,   9,   1,1.01999, -46.5825,1.10000,0.90000,1.10000,0.90000
  1091,'RALLS 2     ', 161.0000,1,   1,   9,   1,1.04274, -41.1648,1.10000,0.90000,1.10000,0.90000
  2001,'PARIS 3     ', 161.0000,1,   2,  11,   1,1.02553, -52.3093,1.10000,0.90000,1.10000,0.90000
  2002,'SAVOY 0     ', 500.0000,1,   2,  11,   1,1.03085, -50.5765,1.10000,0.90000,1.10000,0.90000
  2003,'SAVOY 1     ', 161.0000,1,   2,  11,   1,1.03078, -51.9276,1.10000,0.90000,1.10000,0.90000
  2004,'SAVOY 2     ',  13.8000,2,   2,  11,   1,1.02474, -49.6367,1.10000,0.90000,1.10000,0.90000
  2005,'SAVOY 3     ',  13.8000,2,   2,  11,   1,1.02376, -49.4749,1.10000,0.90000,1.10000,0.90000
  2006,'SAVOY 4     ',  13.8000,2,   2,  11,   1,1.02000, -48.8523,1.10000,0.90000,1.10000,0.90000
  2007,'HONEY GR    ', 161.0000,1,   2,  11,   1,1.02755, -51.8536,1.10000,0.90000,1.10000,0.90000
  2008,'MEMPHIS     ', 161.0000,1,   2,  10,   1,1.03304, -40.7004,1.10000,0.90000,1.10000,0.90000
  2009,'IOWA PAR    ', 161.0000,1,   2,  11,   1,1.03000, -47.3196,1.10000,0.90000,1.10000,0.90000
  2010,'VERNON 2    ', 161.0000,1,   2,  10,   1,1.03000, -45.1750,1.10000,0.90000,1.10000,0.90000
  2011,'PANHANDL    ', 500.0000,1,   2,  10,   1,1.05398, -38.0291,1.10000,0.90000,1.10000,0.90000
  2012,'PANHANDL    ', 161.0000,1,   2,  10,   1,1.04245, -36.8438,1.10000,0.90000,1.10000,0.90000
  2013,'PANHANDL    ',  18.0000,2,   2,  10,   1,1.04610, -37.1781,1.10000,0.90000,1.10000,0.90000
  2014,'CHILDRES    ', 161.0000,1,   2,  10,   1,1.03282, -41.8188,1.10000,0.90000,1.10000,0.90000
  2015,'FORESTBU    ', 161.0000,1,   2,  11,   1,1.02347, -54.0372,1.10000,0.90000,1.10000,0.90000
  2016,'SHERMAN     ', 161.0000,1,   2,  11,   1,1.02623, -54.5851,1.10000,0.90000,1.10000,0.90000
  2017,'PANHANDL    ', 500.0000,1,   2,  10,   1,1.04219, -37.7431,1.10000,0.90000,1.10000,0.90000
  2018,'PANHANDL    ', 161.0000,1,   2,  10,   1,1.04057, -37.1586,1.10000,0.90000,1.10000,0.90000
  2019,'PANHANDL    ',  20.0000,2,   2,  10,   1,1.04000, -36.8316,1.10000,0.90000,1.10000,0.90000
  2020,'WICHITA     ', 161.0000,1,   2,  11,   1,1.01692, -46.7502,1.10000,0.90000,1.10000,0.90000
  2021,'PARIS 2     ', 500.0000,1,   2,  11,   1,1.03235, -50.2092,1.10000,0.90000,1.10000,0.90000
  2022,'PARIS 2     ', 161.0000,1,   2,  11,   1,1.02948, -51.5191,1.10000,0.90000,1.10000,0.90000
  2023,'PARIS 2     ',  13.8000,2,   2,  11,   1,1.03235, -50.2092,1.10000,0.90000,1.10000,0.90000
  2024,'PARIS 2     ',  13.8000,2,   2,  11,   1,1.02809, -49.5511,1.10000,0.90000,1.10000,0.90000
  2025,'WICHITA     ', 161.0000,1,   2,  11,   1,1.01502, -46.4258,1.10000,0.90000,1.10000,0.90000
  2026,'WHEELER     ', 161.0000,1,   2,  10,   1,1.04399, -37.5452,1.10000,0.90000,1.10000,0.90000
  2027,'DEPORT 0    ', 161.0000,1,   2,  11,   1,1.02538, -52.6694,1.10000,0.90000,1.10000,0.90000
  2028,'WICHITA     ', 161.0000,1,   2,  11,   1,1.01817, -47.9462,1.10000,0.90000,1.10000,0.90000
  2029,'SILVERTO    ', 161.0000,1,   2,  10,   1,1.03853, -41.7316,1.10000,0.90000,1.10000,0.90000
  2030,'BONHAM 0    ', 161.0000,1,   2,  11,   1,1.01734, -53.9096,1.10000,0.90000,1.10000,0.90000
  2031,'MATADOR     ', 161.0000,1,   2,  10,   1,1.04234, -42.5818,1.10000,0.90000,1.10000,0.90000
  2032,'ARTHUR C    ', 161.0000,1,   2,  11,   1,1.02861, -51.5782,1.10000,0.90000,1.10000,0.90000
  2033,'LEONARD     ', 161.0000,1,   2,  11,   1,1.00951, -55.3653,1.10000,0.90000,1.10000,0.90000
  2034,'GORDONVI    ', 161.0000,1,   2,  11,   1,1.02787, -54.3430,1.10000,0.90000,1.10000,0.90000
  2035,'KNOX CIT    ', 161.0000,1,   2,  10,   1,1.03705, -43.6813,1.10000,0.90000,1.10000,0.90000
  2036,'WICHITA     ', 161.0000,1,   2,  11,   1,1.01800, -46.6509,1.10000,0.90000,1.10000,0.90000
  2037,'LINDSAY     ', 161.0000,1,   2,  11,   1,1.02866, -53.9306,1.10000,0.90000,1.10000,0.90000
  2038,'ECTOR 0     ', 161.0000,1,   2,  11,   1,1.02815, -52.5035,1.10000,0.90000,1.10000,0.90000
  2039,'SUNSET 0    ', 161.0000,1,   2,  11,   1,1.01393, -53.5445,1.10000,0.90000,1.10000,0.90000
  2040,'CLARKSVI    ', 161.0000,1,   2,  11,   1,1.02942, -51.9683,1.10000,0.90000,1.10000,0.90000
  2041,'PANHANDL    ', 161.0000,1,   2,  10,   1,1.04121, -35.6348,1.10000,0.90000,1.10000,0.90000
  2042,'PANHANDL    ',  18.0000,2,   2,  10,   1,1.03288, -34.2983,1.10000,0.90000,1.10000,0.90000
  2043,'SADLER 0    ', 161.0000,1,   2,  11,   1,1.02718, -54.4561,1.10000,0.90000,1.10000,0.90000
  2044,'WHITESBO    ', 161.0000,1,   2,  11,   1,1.02975, -53.5807,1.10000,0.90000,1.10000,0.90000
  2045,'SHEPPARD    ', 161.0000,1,   2,  11,   1,1.01679, -47.0382,1.10000,0.90000,1.10000,0.90000
  2046,'POTTSBOR    ', 161.0000,1,   2,  11,   1,1.02865, -54.1958,1.10000,0.90000,1.10000,0.90000
  2047,'BELLS 0     ', 161.0000,1,   2,  11,   1,1.03052, -52.3265,1.10000,0.90000,1.10000,0.90000
  2048,'CROSBYTO    ', 161.0000,1,   2,  10,   1,1.04286, -42.6295,1.10000,0.90000,1.10000,0.90000
  2049,'ELECTRA     ', 161.0000,1,   2,  10,   1,1.02775, -45.5554,1.10000,0.90000,1.10000,0.90000
  2050,'PATTONVI    ', 161.0000,1,   2,  11,   1,1.01094, -55.0326,1.10000,0.90000,1.10000,0.90000
  2051,'HENRIETT    ', 161.0000,1,   2,  11,   1,1.01727, -50.8417,1.10000,0.90000,1.10000,0.90000
  2052,'PANHANDL    ', 161.0000,1,   2,  10,   1,1.03345, -39.3836,1.10000,0.90000,1.10000,0.90000
  2053,'BOWIE 0     ', 161.0000,1,   2,  11,   1,1.01559, -52.3165,1.10000,0.90000,1.10000,0.90000
  2054,'WICHITA     ', 500.0000,1,   2,  11,   1,1.01817, -45.6969,1.10000,0.90000,1.10000,0.90000
  2055,'WICHITA     ', 161.0000,1,   2,  11,   1,1.01780, -46.2415,1.10000,0.90000,1.10000,0.90000
  2056,'WICHITA     ',  18.0000,2,   2,  11,   1,1.01817, -45.6969,1.10000,0.90000,1.10000,0.90000
  2057,'WICHITA     ',  18.0000,3,   2,  11,   1,0.99000, -43.8380,1.10000,0.90000,1.10000,0.90000
  2058,'WHITE DE    ', 161.0000,1,   2,  10,   1,1.04115, -35.3468,1.10000,0.90000,1.10000,0.90000
  2059,'WHITE DE    ',  13.8000,2,   2,  10,   1,1.03121, -33.1575,1.10000,0.90000,1.10000,0.90000
  2060,'ROXTON 0    ', 161.0000,1,   2,  11,   1,1.01274, -54.1333,1.10000,0.90000,1.10000,0.90000
  2061,'VERNON 1    ', 161.0000,1,   2,  10,   1,1.02684, -44.0190,1.10000,0.90000,1.10000,0.90000
  2062,'VERNON 1    ',  18.0000,2,   2,  10,   1,1.02000, -42.4407,1.10000,0.90000,1.10000,0.90000
  2063,'DENISON     ', 161.0000,1,   2,  11,   1,1.03000, -53.9390,1.10000,0.90000,1.10000,0.90000
  2064,'SUMNER 0    ', 161.0000,1,   2,  11,   1,1.02125, -52.7759,1.10000,0.90000,1.10000,0.90000
  2065,'GAINESVI    ', 161.0000,1,   2,  11,   1,1.03000, -54.4011,1.10000,0.90000,1.10000,0.90000
  2066,'ASPERMON    ', 161.0000,1,   2,  10,   1,1.03709, -42.6171,1.10000,0.90000,1.10000,0.90000
  2067,'WICHITA     ', 161.0000,1,   2,  11,   1,1.01328, -46.4553,1.10000,0.90000,1.10000,0.90000
  2068,'WINDTHOR    ', 161.0000,1,   2,  11,   1,1.01437, -45.5187,1.10000,0.90000,1.10000,0.90000
  2069,'HOWE 0      ', 161.0000,1,   2,  11,   1,1.03000, -54.1829,1.10000,0.90000,1.10000,0.90000
  2070,'ARCHER 2    ', 161.0000,1,   2,  11,   1,1.01571, -45.2958,1.10000,0.90000,1.10000,0.90000
  2071,'ARCHER 2    ',  18.0000,2,   2,  11,   1,1.00367, -43.7944,1.10000,0.90000,1.10000,0.90000
  2072,'COLLINSV    ', 161.0000,1,   2,  11,   1,1.03091, -53.3331,1.10000,0.90000,1.10000,0.90000
  2073,'JAYTON 0    ', 161.0000,1,   2,  10,   1,1.03639, -41.6177,1.10000,0.90000,1.10000,0.90000
  2074,'JAYTON 1    ', 115.0000,1,   2,  10,   1,1.02916, -41.2444,1.10000,0.90000,1.10000,0.90000
  2075,'JAYTON 2    ', 115.0000,1,   2,  10,   1,1.02916, -41.2444,1.10000,0.90000,1.10000,0.90000
  2076,'JAYTON 3    ',  24.0000,1,   2,  10,   1,1.03988, -41.2857,1.10000,0.90000,1.10000,0.90000
  2077,'MUENSTER    ', 161.0000,1,   2,  11,   1,1.02804, -53.1165,1.10000,0.90000,1.10000,0.90000
  2078,'MUENSTER    ',  13.8000,2,   2,  11,   1,1.02000, -51.7484,1.10000,0.90000,1.10000,0.90000
  2079,'PADUCAH     ', 161.0000,1,   2,  10,   1,1.03694, -44.2495,1.10000,0.90000,1.10000,0.90000
  2080,'NOCONA 0    ', 161.0000,1,   2,  11,   1,1.01910, -52.1198,1.10000,0.90000,1.10000,0.90000
  2081,'DODD CIT    ', 161.0000,1,   2,  11,   1,1.02328, -53.5286,1.10000,0.90000,1.10000,0.90000
  2082,'WICHITA     ', 161.0000,1,   2,  11,   1,1.01960, -46.9548,1.10000,0.90000,1.10000,0.90000
  2083,'WICHITA     ',  20.0000,2,   2,  11,   1,1.01960, -46.9548,1.10000,0.90000,1.10000,0.90000
  2084,'WICHITA     ',  20.0000,2,   2,  11,   1,1.01960, -46.9548,1.10000,0.90000,1.10000,0.90000
  2085,'WICHITA     ',  20.0000,2,   2,  11,   1,1.01960, -46.9548,1.10000,0.90000,1.10000,0.90000
  2086,'MONTAGUE    ', 161.0000,1,   2,  11,   1,1.01623, -53.0134,1.10000,0.90000,1.10000,0.90000
  2087,'SPUR 0      ', 161.0000,1,   2,  10,   1,1.03968, -42.2486,1.10000,0.90000,1.10000,0.90000
  2088,'ARCHER 1    ', 161.0000,1,   2,  11,   1,1.01454, -45.3742,1.10000,0.90000,1.10000,0.90000
  2089,'ARCHER 1    ',  24.0000,1,   2,  11,   1,1.00272, -43.9026,1.10000,0.90000,1.10000,0.90000
  2090,'ANNONA 0    ', 161.0000,1,   2,  11,   1,1.02386, -53.2355,1.10000,0.90000,1.10000,0.90000
  2091,'SEYMOUR     ', 161.0000,1,   2,  10,   1,1.03364, -44.7958,1.10000,0.90000,1.10000,0.90000
  2092,'DENISON     ', 161.0000,1,   2,  11,   1,1.02992, -53.1441,1.10000,0.90000,1.10000,0.90000
  2093,'PANHANDL    ', 161.0000,1,   2,  10,   1,1.04075, -36.5356,1.10000,0.90000,1.10000,0.90000
  2094,'PANHANDL    ',  13.8000,1,   2,  10,   1,1.03937, -36.3302,1.10000,0.90000,1.10000,0.90000
  2095,'PANHANDL    ',  13.8000,1,   2,  10,   1,1.03543, -35.7227,1.10000,0.90000,1.10000,0.90000
  2096,'RALLS 1     ', 500.0000,1,   2,  10,   1,1.03000, -37.4078,1.10000,0.90000,1.10000,0.90000
  2097,'RALLS 1     ', 230.0000,1,   2,  10,   1,1.03185, -37.6182,1.10000,0.90000,1.10000,0.90000
  2098,'RALLS 1     ', 161.0000,1,   2,  10,   1,1.04268, -40.5976,1.10000,0.90000,1.10000,0.90000
  2099,'RALLS 1     ',  18.0000,1,   2,  10,   1,1.02953, -37.3252,1.10000,0.90000,1.10000,0.90000
  2100,'RALLS 1     ',  18.0000,2,   2,  10,   1,1.02116, -35.8821,1.10000,0.90000,1.10000,0.90000
  2101,'SHERMAN     ', 500.0000,1,   2,  11,   1,1.03271, -51.1566,1.10000,0.90000,1.10000,0.90000
  2102,'SHERMAN     ', 161.0000,1,   2,  11,   1,1.03266, -51.9392,1.10000,0.90000,1.10000,0.90000
  2103,'SHERMAN     ',  20.0000,2,   2,  11,   1,1.03271, -51.1566,1.10000,0.90000,1.10000,0.90000
  2104,'SHERMAN     ',  20.0000,2,   2,  11,   1,1.03271, -51.1566,1.10000,0.90000,1.10000,0.90000
  2105,'SHERMAN     ',  20.0000,2,   2,  11,   1,1.03271, -51.1566,1.10000,0.90000,1.10000,0.90000
  2106,'WHITEWRI    ', 161.0000,1,   2,  11,   1,1.01223, -55.0455,1.10000,0.90000,1.10000,0.90000
  2107,'SHERMAN     ', 161.0000,1,   2,  11,   1,1.03064, -52.3056,1.10000,0.90000,1.10000,0.90000
  2108,'ROCHESTE    ', 161.0000,1,   2,  10,   1,1.03547, -48.3700,1.10000,0.90000,1.10000,0.90000
  2109,'BURKBURN    ', 161.0000,1,   2,  11,   1,1.02366, -47.7618,1.10000,0.90000,1.10000,0.90000
...
0 / END OF BUS DATA, BEGIN LOAD DATA
  1006,'1 ',1,   1,   9,    -9.907,     4.940,     0.000,     0.000,     0.000,     0.000,   1,1,0
  1009,'1 ',1,   1,   9,   -23.822,    11.880,     0.000,     0.000,     0.000,     0.000,   1,1,0
  1011,'1 ',1,   1,   9,    -1.435,     0.000,     0.000,     0.000,     0.000,     0.000,   1,1,0
  1035,'1 ',1,   1,   9,   -25.990,    12.960,     0.000,     0.000,     0.000,     0.000,   1,1,0
  1043,'1 ',1,   1,   9,   -16.980,     8.470,     0.000,     0.000,     0.000,     0.000,   1,1,0
  1062,'1 ',1,   1,   9,    -0.260,     0.000,     0.000,     0.000,     0.000,     0.000,   1,1,0
  1088,'1 ',1,   1,   9,   -21.658,     6.152,     0.000,     0.000,     0.000,     0.000,   1,1,0
  1090,'1 ',1,   1,   9,   -20.792,   -25.852,     0.000,     0.000,     0.000,     0.000,   1,1,0
  2076,'1 ',1,   2,  10,    -8.663,    -4.530,     0.000,     0.000,     0.000,     0.000,   1,1,0
  2089,'1 ',1,   2,  11,   -20.869,     9.730,     0.000,     0.000,     0.000,     0.000,   1,1,0
  2094,'1 ',1,   2,  10,    -3.728,     1.440,     0.000,     0.000,     0.000,     0.000,   1,1,0
  2095,'1 ',1,   2,  10,   -29.640,    11.450,     0.000,     0.000,     0.000,     0.000,   1,1,0
  2099,'1 ',1,   2,  10,    -4.383,     1.440,     0.000,     0.000,     0.000,     0.000,   1,1,0
  3004,'1 ',1,   3,  27,   -10.831,     5.400,     0.000,     0.000,     0.000,     0.000,   1,1,0
  3065,'1 ',1,   3,  27,   -23.245,    11.590,     0.000,     0.000,     0.000,     0.000,   1,1,0
  3074,'1 ',1,   3,  28,   -28.820,    14.370,     0.000,     0.000,     0.000,     0.000,   1,1,0
  3086,'1 ',1,   3,  27,   -21.658,    10.800,     0.000,     0.000,     0.000,     0.000,   1,1,0
  3087,'1 ',1,   3,  27,   -28.878,    10.800,     0.000,     0.000,     0.000,     0.000,   1,1,0
  3105,'1 ',1,   3,  28,   -13.604,     0.740,     0.000,     0.000,     0.000,     0.000,   1,1,0
  3110,'1 ',1,   3,  27,   -24.257,    -3.345,     0.000,     0.000,     0.000,     0.000,   1,1,0
  3112,'1 ',1,   3,  27,   -21.601,    10.770,     0.000,     0.000,     0.000,     0.000,   1,1,0
  3113,'1 ',1,   3,  27,   -21.601,    10.770,     0.000,     0.000,     0.000,     0.000,   1,1,0
  3117,'1 ',1,   3,  27,   -18.193,     9.070,     0.000,     0.000,     0.000,     0.000,   1,1,0
  3120,'1 ',1,   3,  28,    -8.967,     0.000,     0.000,     0.000,     0.000,     0.000,   1,1,0
  3137,'1 ',1,   3,  27,   -29.224,   -10.312,     0.000,     0.000,     0.000,     0.000,   1,1,0
  3141,'1 ',1,   3,  27,   -26.421,    13.180,     0.000,     0.000,     0.000,     0.000,   1,1,0
  4045,'1 ',1,   4,  19,   -28.552,    -1.453,     0.000,     0.000,     0.000,     0.000,   1,1,0
  4046,'1 ',1,   4,  19,    -8.712,    -2.975,     0.000,     0.000,     0.000,     0.000,   1,1,0
  4195,'1 ',1,   4,  20,   -26.568,    13.250,     0.000,     0.000,     0.000,     0.000,   1,1,0
  5170,'1 ',1,   5,  15,   -18.523,     8.640,     0.000,     0.000,     0.000,     0.000,   1,1,0
  5342,'1 ',1,   5,  17,    -2.568,    -3.201,     0.000,     0.000,     0.000,     0.000,   1,1,0
  6041,'1 ',1,   6,  23,   -16.324,   -10.271,     0.000,     0.000,     0.000,     0.000,   1,1,0
  6051,'1 ',1,   6,  26,   -17.220,   -24.156,     0.000,     0.000,     0.000,     0.000,   1,1,0
  6053,'1 ',1,   6,  26,   -17.220,   -21.049,     0.000,     0.000,     0.000,     0.000,   1,1,0
  6054,'1 ',1,   6,  26,   -17.220,   -11.001,     0.000,     0.000,     0.000,     0.000,   1,1,0
  6082,'1 ',1,   6,  23,   -19.962,    -7.790,     0.000,     0.000,     0.000,     0.000,   1,1,0
  6083,'1 ',1,   6,  23,   -19.962,    -5.951,     0.000,     0.000,     0.000,     0.000,   1,1,0
  6085,'1 ',1,   6,  23,    -0.388,     0.000,     0.000,     0.000,     0.000,     0.000,   1,1,0
  6086,'1 ',1,   6,  23,    -8.314,     0.000,     0.000,     0.000,     0.000,     0.000,   1,1,0
  6087,'1 ',1,   6,  23,    -1.773,     0.000,     0.000,     0.000,     0.000,     0.000,   1,1,0
  6088,'1 ',1,   6,  23,    -2.938,     0.000,     0.000,     0.000,     0.000,     0.000,   1,1,0
  6089,'1 ',1,   6,  23,    -3.850,     0.000,     0.000,     0.000,     0.000,     0.000,   1,1,0
  6090,'1 ',1,   6,  23,   -11.278,     0.000,     0.000,     0.000,     0.000,     0.000,   1,1,0
  6266,'1 ',1,   6,  24,    -1.376,    -1.719,     0.000,     0.000,     0.000,     0.000,   1,1,0
  6267,'1 ',1,   6,  24,    -2.201,    -2.727,     0.000,     0.000,     0.000,     0.000,   1,1,0
  6268,'1 ',1,   6,  24,    -1.376,    -1.719,     0.000,     0.000,     0.000,     0.000,   1,1,0
  6269,'1 ',1,   6,  24,    -2.201,    -2.727,     0.000,     0.000,     0.000,     0.000,   1,1,0
  6270,'1 ',1,   6,  24,    -5.503,    -6.817,     0.000,     0.000,     0.000,     0.000,   1,1,0
  6271,'1 ',1,   6,  24,    -3.363,    -4.090,     0.000,     0.000,     0.000,     0.000,   1,1,0
  6272,'1 ',1,   6,  24,    -2.201,    -2.727,     0.000,     0.000,     0.000,     0.000,   1,1,0
  6273,'1 ',1,   6,  24,    -2.201,    -2.727,     0.000,     0.000,     0.000,     0.000,   1,1,0
  6274,'1 ',1,   6,  24,    -2.568,    -3.201,     0.000,     0.000,     0.000,     0.000,   1,1,0
  7031,'1 ',1,   7,   6,   -16.598,     0.000,     0.000,     0.000,     0.000,     0.000,   1,1,0
  7032,'1 ',1,   7,   6,    -4.278,     0.000,     0.000,     0.000,     0.000,     0.000,   1,1,0
  7033,'1 ',1,   7,   6,    -4.278,     0.000,     0.000,     0.000,     0.000,     0.000,   1,1,0
  7034,'1 ',1,   7,   6,    -2.510,     0.000,     0.000,     0.000,     0.000,     0.000,   1,1,0
  7284,'1 ',1,   7,   4,    -4.278,     0.000,     0.000,     0.000,     0.000,     0.000,   1,1,0
  7285,'1 ',1,   7,   4,   -12.103,     0.000,     0.000,     0.000,     0.000,     0.000,   1,1,0
  7286,'1 ',1,   7,   4,   -12.103,     0.000,     0.000,     0.000,     0.000,     0.000,   1,1,0
  7287,'1 ',1,   7,   4,   -12.103,     0.000,     0.000,     0.000,     0.000,     0.000,   1,1,0
  7288,'1 ',1,   7,   4,   -12.103,     0.000,     0.000,     0.000,     0.000,     0.000,   1,1,0
  7289,'1 ',1,   7,   4,   -24.212,     0.000,     0.000,     0.000,     0.000,     0.000,   1,1,0
  8024,'1 ',1,   8,   8,   -18.822,     0.000,     0.000,     0.000,     0.000,     0.000,   1,1,0
 11001,'1 ',1,   1,   9,    17.014,     4.648,     0.000,     0.000,     0.000,     0.000,   1,1,0
 11002,'1 ',1,   1,   9,    10.421,     2.941,     0.000,     0.000,     0.000,     0.000,   1,1,0
 11007,'1 ',1,   1,   9,     4.740,     1.341,     0.000,     0.000,     0.000,     0.000,   1,1,0
 11012,'1 ',1,   1,   9,     2.138,     0.606,     0.000,     0.000,     0.000,     0.000,   1,1,0
 11013,'1 ',1,   1,   9,    22.016,     6.014,     0.000,     0.000,     0.000,     0.000,   1,1,0
 11014,'1 ',1,   1,   9,     1.828,     0.518,     0.000,     0.000,     0.000,     0.000,   1,1,0
 11015,'1 ',1,   1,   9,     5.079,     1.437,     0.000,     0.000,     0.000,     0.000,   1,1,0
 11016,'1 ',1,   1,   9,     2.359,     0.668,     0.000,     0.000,     0.000,     0.000,   1,1,0
 11017,'1 ',1,   1,   9,    14.753,     4.029,     0.000,     0.000,     0.000,     0.000,   1,1,0
 11018,'1 ',1,   1,   9,     0.054,     0.016,     0.000,     0.000,     0.000,     0.000,   1,1,0
 11019,'1 ',1,   1,   9,    46.273,    12.656,     0.000,     0.000,     0.000,     0.000,   1,1,0
 11024,'1 ',1,   1,   9,    49.055,    13.393,     0.000,     0.000,     0.000,     0.000,   1,1,0
 11027,'1 ',1,   1,   9,    62.028,    16.966,     0.000,     0.000,     0.000,     0.000,   1,1,0
 11028,'1 ',1,   1,   9,     6.108,     1.727,     0.000,     0.000,     0.000,     0.000,   1,1,0
 11029,'1 ',1,   1,   9,    69.485,    19.001,     0.000,     0.000,     0.000,     0.000,   1,1,0
 11030,'1 ',1,   1,   9,    12.560,     3.435,     0.000,     0.000,     0.000,     0.000,   1,1,0
 11031,'1 ',1,   1,   9,     6.042,     1.708,     0.000,     0.000,     0.000,     0.000,   1,1,0
 11036,'1 ',1,   1,   9,     9.328,     2.634,     0.000,     0.000,     0.000,     0.000,   1,1,0
 11037,'1 ',1,   1,   9,    83.438,    22.782,     0.000,     0.000,     0.000,     0.000,   1,1,0
 11040,'1 ',1,   1,   9,    38.797,    10.595,     0.000,     0.000,     0.000,     0.000,   1,1,0
 11044,'1 ',1,   1,   9,     8.409,     2.375,     0.000,     0.000,     0.000,     0.000,   1,1,0
 11045,'1 ',1,   1,   9,    68.937,    18.834,     0.000,     0.000,     0.000,     0.000,   1,1,0
 11046,'1 ',1,   1,   9,     9.071,     2.562,     0.000,     0.000,     0.000,     0.000,   1,1,0
 11054,'1 ',1,   1,   9,    10.773,     3.040,     0.000,     0.000,     0.000,     0.000,   1,1,0
 11055,'1 ',1,   1,   9,     3.270,     0.925,     0.000,     0.000,     0.000,     0.000,   1,1,0
 11058,'1 ',1,   1,   9,    11.386,     3.213,     0.000,     0.000,     0.000,     0.000,   1,1,0
 11064,'1 ',1,   1,   9,    95.672,    26.136,     0.000,     0.000,     0.000,     0.000,   1,1,0
 11067,'1 ',1,   1,   9,    45.187,    12.342,     0.000,     0.000,     0.000,     0.000,   1,1,0
 11068,'1 ',1,   1,   9,    50.247,    13.706,     0.000,     0.000,     0.000,     0.000,   1,1,0
 11071,'1 ',1,   1,   9,    76.433,    20.890,     0.000,     0.000,     0.000,     0.000,   1,1,0
 11083,'1 ',1,   1,   9,    27.016,     7.387,     0.000,     0.000,     0.000,     0.000,   1,1,0
 11085,'1 ',1,   1,   9,    14.610,     3.991,     0.000,     0.000,     0.000,     0.000,   1,1,0
 11086,'1 ',1,   1,   9,    32.481,     8.881,     0.000,     0.000,     0.000,     0.000,   1,1,0
 11087,'1 ',1,   1,   9,     0.732,     0.208,     0.000,     0.000,     0.000,     0.000,   1,1,0
 11089,'1 ',1,   1,   9,    27.057,     7.386,     0.000,     0.000,     0.000,     0.000,   1,1,0
 11091,'1 ',1,   1,   9,     7.903,     2.233,     0.000,     0.000,     0.000,     0.000,   1,1,0
 12001,'1 ',1,   2,  11,    24.249,     6.630,     0.000,     0.000,     0.000,     0.000,   1,1,0
 12007,'1 ',1,   2,  11,     4.110,     1.163,     0.000,     0.000,     0.000,     0.000,   1,1,0
 12008,'1 ',1,   2,  10,     8.207,     2.319,     0.000,     0.000,     0.000,     0.000,   1,1,0
 12009,'1 ',1,   2,  11,    26.351,     7.207,     0.000,     0.000,     0.000,     0.000,   1,1,0
 12010,'1 ',1,   2,  10,    45.081,    12.330,     0.000,     0.000,     0.000,     0.000,   1,1,0
 12014,'1 ',1,   2,  10,    23.569,     6.447,     0.000,     0.000,     0.000,     0.000,   1,1,0
 12015,'1 ',1,   2,  11,     3.028,     0.857,     0.000,     0.000,     0.000,     0.000,   1,1,0
 12016,'1 ',1,   2,  11,    30.727,     8.402,     0.000,     0.000,     0.000,     0.000,   1,1,0
 12020,'1 ',1,   2,  11,    30.320,     8.284,     0.000,     0.000,     0.000,     0.000,   1,1,0
 12022,'1 ',1,   2,  11,     4.996,     1.413,     0.000,     0.000,     0.000,     0.000,   1,1,0
 12025,'1 ',1,   2,  11,    30.772,     8.407,     0.000,     0.000,     0.000,     0.000,   1,1,0
 12026,'1 ',1,   2,  10,    16.504,     4.518,     0.000,     0.000,     0.000,     0.000,   1,1,0
 12027,'1 ',1,   2,  11,     1.793,     0.507,     0.000,     0.000,     0.000,     0.000,   1,1,0
 12028,'1 ',1,   2,  11,     8.940,     2.524,     0.000,     0.000,     0.000,     0.000,   1,1,0
 12029,'1 ',1,   2,  10,     2.857,     0.809,     0.000,     0.000,     0.000,     0.000,   1,1,0
 12030,'1 ',1,   2,  11,    19.563,     5.345,     0.000,     0.000,     0.000,     0.000,   1,1,0
 12031,'1 ',1,   2,  10,     5.073,     1.435,     0.000,     0.000,     0.000,     0.000,   1,1,0
 12032,'1 ',1,   2,  11,     2.110,     0.597,     0.000,     0.000,     0.000,     0.000,   1,1,0
 12033,'1 ',1,   2,  11,     5.230,     1.479,     0.000,     0.000,     0.000,     0.000,   1,1,0
 12034,'1 ',1,   2,  11,     2.403,     0.680,     0.000,     0.000,     0.000,     0.000,   1,1,0
 12035,'1 ',1,   2,  10,     3.625,     1.026,     0.000,     0.000,     0.000,     0.000,   1,1,0
 12036,'1 ',1,   2,  11,    27.281,     7.455,     0.000,     0.000,     0.000,     0.000,   1,1,0
 12037,'1 ',1,   2,  11,     3.098,     0.876,     0.000,     0.000,     0.000,     0.000,   1,1,0
 12038,'1 ',1,   2,  11,     1.110,     0.315,     0.000,     0.000,     0.000,     0.000,   1,1,0
 12039,'1 ',1,   2,  11,     4.087,     1.156,     0.000,     0.000,     0.000,     0.000,   1,1,0
 12040,'1 ',1,   2,  11,     8.488,     2.398,     0.000,     0.000,     0.000,     0.000,   1,1,0
 12043,'1 ',1,   2,  11,     1.955,     0.554,     0.000,     0.000,     0.000,     0.000,   1,1,0
 12044,'1 ',1,   2,  11,    13.698,     3.746,     0.000,     0.000,     0.000,     0.000,   1,1,0
 12045,'1 ',1,   2,  11,    18.475,     5.048,     0.000,     0.000,     0.000,     0.000,   1,1,0
 12046,'1 ',1,   2,  11,     9.780,     2.761,     0.000,     0.000,     0.000,     0.000,   1,1,0
 12047,'1 ',1,   2,  11,     6.400,     1.809,     0.000,     0.000,     0.000,     0.000,   1,1,0
 12048,'1 ',1,   2,  10,     4.432,     1.254,     0.000,     0.000,     0.000,     0.000,   1,1,0
 12049,'1 ',1,   2,  10,     7.284,     2.059,     0.000,     0.000,     0.000,     0.000,   1,1,0
 12050,'1 ',1,   2,  11,     2.070,     0.586,     0.000,     0.000,     0.000,     0.000,   1,1,0
 12051,'1 ',1,   2,  11,    13.704,     3.744,     0.000,     0.000,     0.000,     0.000,   1,1,0
 12052,'1 ',1,   2,  10,    24.913,     6.815,     0.000,     0.000,     0.000,     0.000,   1,1,0
 12053,'1 ',1,   2,  11,    25.632,     7.003,     0.000,     0.000,     0.000,     0.000,   1,1,0
 12055,'1 ',1,   2,  11,    29.669,     8.107,     0.000,     0.000,     0.000,     0.000,   1,1,0
 12060,'1 ',1,   2,  11,     1.880,     0.532,     0.000,     0.000,     0.000,     0.000,   1,1,0
 12063,'1 ',1,   2,  11,    35.913,     9.822,     0.000,     0.000,     0.000,     0.000,   1,1,0
 12064,'1 ',1,   2,  11,     4.269,     1.208,     0.000,     0.000,     0.000,     0.000,   1,1,0
 12065,'1 ',1,   2,  11,    59.974,    16.404,     0.000,     0.000,     0.000,     0.000,   1,1,0
 12066,'1 ',1,   2,  10,     4.850,     1.372,     0.000,     0.000,     0.000,     0.000,   1,1,0
 12067,'1 ',1,   2,  11,    34.570,     9.444,     0.000,     0.000,     0.000,     0.000,   1,1,0
 12068,'1 ',1,   2,  11,     3.878,     1.097,     0.000,     0.000,     0.000,     0.000,   1,1,0
 12069,'1 ',1,   2,  11,     9.563,     2.700,     0.000,     0.000,     0.000,     0.000,   1,1,0
 12072,'1 ',1,   2,  11,     4.212,     1.192,     0.000,     0.000,     0.000,     0.000,   1,1,0
 12079,'1 ',1,   2,  10,     3.555,     1.006,     0.000,     0.000,     0.000,     0.000,   1,1,0
 12080,'1 ',1,   2,  11,    10.856,     3.063,     0.000,     0.000,     0.000,     0.000,   1,1,0
 12081,'1 ',1,   2,  11,     2.259,     0.640,     0.000,     0.000,     0.000,     0.000,   1,1,0
 12082,'1 ',1,   2,  11,    35.629,     9.737,     0.000,     0.000,     0.000,     0.000,   1,1,0
 12086,'1 ',1,   2,  11,     1.316,     0.373,     0.000,     0.000,     0.000,     0.000,   1,1,0
 12087,'1 ',1,   2,  10,     6.740,     1.905,     0.000,     0.000,     0.000,     0.000,   1,1,0
 12090,'1 ',1,   2,  11,     1.340,     0.380,     0.000,     0.000,     0.000,     0.000,   1,1,0
 12091,'1 ',1,   2,  10,    12.561,     3.436,     0.000,     0.000,     0.000,     0.000,   1,1,0
 12092,'1 ',1,   2,  11,     7.512,     2.123,     0.000,     0.000,     0.000,     0.000,   1,1,0
 12106,'1 ',1,   2,  11,     6.751,     1.908,     0.000,     0.000,     0.000,     0.000,   1,1,0
 12107,'1 ',1,   2,  11,    29.790,     8.148,     0.000,     0.000,     0.000,     0.000,   1,1,0
 12108,'1 ',1,   2,  10,     1.571,     0.445,     0.000,     0.000,     0.000,     0.000,   1,1,0
 12109,'1 ',1,   2,  11,    19.924,     5.446,     0.000,     0.000,     0.000,     0.000,   1,1,0
 12110,'1 ',1,   2,  11,     5.491,     1.553,     0.000,     0.000,     0.000,     0.000,   1,1,0
 12111,'1 ',1,   2,  11,    10.568,     2.983,     0.000,     0.000,     0.000,     0.000,   1,1,0
 12112,'1 ',1,   2,  11,     3.415,     0.966,     0.000,     0.000,     0.000,     0.000,   1,1,0
 12114,'1 ',1,   2,  11,    38.134,    10.431,     0.000,     0.000,     0.000,     0.000,   1,1,0
 12121,'1 ',1,   2,  11,     1.255,     0.355,     0.000,     0.000,     0.000,     0.000,   1,1,0
 12122,'1 ',1,   2,  11,     2.763,     0.782,     0.000,     0.000,     0.000,     0.000,   1,1,0
 12124,'1 ',1,   2,  11,     8.729,     2.465,     0.000,     0.000,     0.000,     0.000,   1,1,0
 12125,'1 ',1,   2,  11,     2.110,     0.597,     0.000,     0.000,     0.000,     0.000,   1,1,0
 12126,'1 ',1,   2,  11,     9.878,     2.789,     0.000,     0.000,     0.000,     0.000,   1,1,0
 12129,'1 ',1,   2,  11,     2.825,     0.800,     0.000,     0.000,     0.000,     0.000,   1,1,0
 12132,'1 ',1,   2,  10,     7.512,     2.123,     0.000,     0.000,     0.000,     0.000,   1,1,0
 12133,'1 ',1,   2,  11,     2.627,     0.744,     0.000,     0.000,     0.000,     0.000,   1,1,0
 13002,'1 ',1,   3,  28,    53.490,    14.618,     0.000,     0.000,     0.000,     0.000,   1,1,0
 13005,'1 ',1,   3,  28,     4.552,     1.288,     0.000,     0.000,     0.000,     0.000,   1,1,0
 13006,'1 ',1,   3,  27,     6.255,     1.769,     0.000,     0.000,     0.000,     0.000,   1,1,0
 13007,'1 ',1,   3,  27,     7.678,     2.170,     0.000,     0.000,     0.000,     0.000,   1,1,0
 13008,'1 ',1,   3,  27,    12.906,     3.528,     0.000,     0.000,     0.000,     0.000,   1,1,0
 13009,'1 ',1,   3,  28,     9.943,     2.807,     0.000,     0.000,     0.000,     0.000,   1,1,0
 13010,'1 ',1,   3,  28,     1.986,     0.562,     0.000,     0.000,     0.000,     0.000,   1,1,0
 13011,'1 ',1,   3,  28,    12.851,     3.509,     0.000,     0.000,     0.000,     0.000,   1,1,0
 13012,'1 ',1,   3,  28,     0.321,     0.091,     0.000,     0.000,     0.000,     0.000,   1,1,0
 13013,'1 ',1,   3,  27,    39.823,    10.892,     0.000,     0.000,     0.000,     0.000,   1,1,0
 13014,'1 ',1,   3,  28,    10.500,     2.964,     0.000,     0.000,     0.000,     0.000,   1,1,0
 13015,'1 ',1,   3,  27,     2.929,     0.829,     0.000,     0.000,     0.000,     0.000,   1,1,0
 13021,'1 ',1,   3,  27,     2.034,     0.576,     0.000,     0.000,     0.000,     0.000,   1,1,0
 13022,'1 ',1,   3,  27,    12.501,     3.415,     0.000,     0.000,     0.000,     0.000,   1,1,0
 13023,'1 ',1,   3,  27,     5.904,     1.669,     0.000,     0.000,     0.000,     0.000,   1,1,0
 13024,'1 ',1,   3,  28,     9.034,     2.551,     0.000,     0.000,     0.000,     0.000,   1,1,0
 13025,'1 ',1,   3,  28,     6.099,     1.724,     0.000,     0.000,     0.000,     0.000,   1,1,0
 13029,'1 ',1,   3,  28,     2.129,     0.603,     0.000,     0.000,     0.000,     0.000,   1,1,0
 13030,'1 ',1,   3,  27,    72.735,    19.895,     0.000,     0.000,     0.000,     0.000,   1,1,0
 13031,'1 ',1,   3,  27,     8.106,     2.290,     0.000,     0.000,     0.000,     0.000,   1,1,0
 13032,'1 ',1,   3,  27,    50.429,    13.781,     0.000,     0.000,     0.000,     0.000,   1,1,0
 13035,'1 ',1,   3,  28,     1.700,     0.482,     0.000,     0.000,     0.000,     0.000,   1,1,0
 13036,'1 ',1,   3,  28,     3.988,     1.128,     0.000,     0.000,     0.000,     0.000,   1,1,0
 13040,'1 ',1,   3,  27,    10.258,     2.896,     0.000,     0.000,     0.000,     0.000,   1,1,0
 13042,'1 ',1,   3,  27,     4.781,     1.352,     0.000,     0.000,     0.000,     0.000,   1,1,0
 13049,'1 ',1,   3,  27,     5.894,     1.667,     0.000,     0.000,     0.000,     0.000,   1,1,0
 13051,'1 ',1,   3,  28,   111.742,    30.548,     0.000,     0.000,     0.000,     0.000,   1,1,0
 13052,'1 ',1,   3,  28,     4.601,     1.301,     0.000,     0.000,     0.000,     0.000,   1,1,0
 13066,'1 ',1,   3,  28,    16.843,     4.605,     0.000,     0.000,     0.000,     0.000,   1,1,0
...
0 / END OF LOAD DATA, BEGIN FIXED SHUNT DATA
  2017,'1 ',1,     0.000,  -100.000
  2096,'1 ',1,     0.000,   -61.166
0 / END OF FIXED SHUNT DATA, BEGIN GENERATOR DATA
  1004,'1 ',    60.932,   -30.380,    44.940,   -30.380,1.01000,     0,   253.200, 0.00000E+0, 1.00000E+0, 0.00000E+0, 0.00000E+0,1.00000,1,  100.0,   211.000,    63.300,   1,1.0000
  1021,'1 ',    57.613,   -28.730,    42.490,   -28.730,1.00000,     0,   239.400, 0.00000E+0, 1.00000E+0, 0.00000E+0, 0.00000E+0,1.00000,1,  100.0,   199.500,    59.850,   1,1.0000
  1023,'1 ',    51.980,   -15.006,    38.340,   -25.920,1.01000,     0,   216.000, 0.00000E+0, 1.00000E+0, 0.00000E+0, 0.00000E+0,1.00000,1,  100.0,   180.000,    54.000,   1,1.0000
  1026,'1 ',    35.866,   -17.880,    26.450,   -17.880,1.00000,     0,   149.040, 0.00000E+0, 1.00000E+0, 0.00000E+0, 0.00000E+0,1.00000,1,  100.0,   124.200,    37.260,   1,1.0000
  1033,'1 ',    80.280,   -40.030,    59.210,   -40.030,1.00000,     0,   333.600, 0.00000E+0, 1.00000E+0, 0.00000E+0, 0.00000E+0,1.00000,1,  100.0,   278.000,    83.400,   1,1.0000
  1039,'1 ',    42.597,   -21.240,    31.420,   -21.240,1.00000,     0,   177.000, 0.00000E+0, 1.00000E+0, 0.00000E+0, 0.00000E+0,1.00000,1,  100.0,   147.500,    44.250,   1,1.0000
  1042,'1 ',    46.936,   -10.068,    25.960,   -17.550,1.00000,     0,   146.280, 0.00000E+0, 1.00000E+0, 0.00000E+0, 0.00000E+0,1.00000,1,  100.0,   121.900,    36.570,   1,1.0000
  1048,'1 ',    97.560,   -20.094,   165.530,   -36.100,1.00000,     0,   390.240, 0.00000E+0, 1.01700E-1, 0.00000E+0, 0.00000E+0,1.00000,1,  100.0,   325.200,    97.560,   1,1.0000
  1049,'1 ',    97.560,    -6.912,   165.530,   -36.100,1.00000,     0,   390.240, 0.00000E+0, 1.34900E-1, 0.00000E+0, 0.00000E+0,1.00000,1,  100.0,   325.200,    97.560,   1,1.0000
  1050,'1 ',     0.000,    -6.604,    45.500,    -9.920,1.00000,     0,   107.280, 0.00000E+0, 2.77700E-1, 0.00000E+0, 0.00000E+0,1.00000,0,  100.0,    89.400,    26.820,   1,1.0000
  1051,'1 ',     0.000,    -4.791,    45.500,    -9.920,1.00000,     0,   107.280, 0.00000E+0, 3.17400E-1, 0.00000E+0, 0.00000E+0,1.00000,0,  100.0,    89.400,    26.820,   1,1.0000
  1052,'1 ',     0.000,    -9.920,    45.500,    -9.920,1.00000,     0,   107.280, 0.00000E+0, 2.78100E-1, 0.00000E+0, 0.00000E+0,1.00000,0,  100.0,    89.400,    26.820,   1,1.0000
  1053,'1 ',    53.640,   -19.850,    91.010,   -19.850,1.00000,     0,   214.560, 0.00000E+0, 1.68700E-1, 0.00000E+0, 0.00000E+0,1.00000,1,  100.0,   178.800,    53.640,   1,1.0000
  1057,'1 ',    46.204,   -17.280,    25.560,   -17.280,1.00000,     0,   144.000, 0.00000E+0, 1.00000E+0, 0.00000E+0, 0.00000E+0,1.00000,1,  100.0,   120.000,    36.000,   1,1.0000
  1059,'1 ',     0.000,     0.000,     2.850,    -0.620,1.04000,     0,     6.720, 0.00000E+0, 2.27700E-1, 0.00000E+0, 0.00000E+0,1.00000,0,  100.0,     5.600,     1.680,   1,1.0000
  1060,'1 ',     0.000,     0.000,     1.020,    -0.220,1.04000,     0,     2.400, 0.00000E+0, 1.63000E-1, 0.00000E+0, 0.00000E+0,1.00000,0,  100.0,     2.000,     0.600,   1,1.0000
  1063,'1 ',    39.795,     0.000,     0.000,     0.000,1.01000,     0,   276.000, 0.00000E+0, 1.00000E+0, 0.00000E+0, 0.00000E+0,1.00000,1,  100.0,   230.000,    69.000,   1,1.0000
  1066,'1 ',    41.153,   -10.602,    30.350,   -20.520,1.00000,     0,   171.000, 0.00000E+0, 1.00000E+0, 0.00000E+0, 0.00000E+0,1.00000,1,  100.0,   142.500,    42.750,   1,1.0000
  1070,'1 ',    46.351,    19.594,    34.190,   -23.110,1.04000,     0,   192.600, 0.00000E+0, 1.00000E+0, 0.00000E+0, 0.00000E+0,1.00000,1,  100.0,   160.500,    48.150,   1,1.0000
  1072,'1 ',    42.751,   -12.777,    97.800,   -21.330,1.01000,     0,   230.560, 0.00000E+0, 3.08200E-1, 0.00000E+0, 0.00000E+0,1.00000,1,  100.0,   192.130,    57.640,   1,1.0000
  1073,'1 ',    57.640,   -10.767,    97.800,   -21.330,1.01000,     0,   230.560, 0.00000E+0, 1.94800E-1, 0.00000E+0, 0.00000E+0,1.00000,1,  100.0,   192.130,    57.640,   1,1.0000
  1074,'1 ',    57.640,    -8.122,    97.800,   -21.330,1.01000,     0,   230.560, 0.00000E+0, 2.09600E-1, 0.00000E+0, 0.00000E+0,1.00000,1,  100.0,   192.130,    57.640,   1,1.0000
  1075,'1 ',    57.640,    -9.895,    97.800,   -21.330,1.01000,     0,   230.560, 0.00000E+0, 1.23700E-1, 0.00000E+0, 0.00000E+0,1.00000,1,  100.0,   192.130,    57.640,   1,1.0000
  1076,'1 ',    57.640,   -19.747,    97.800,   -21.330,1.01000,     0,   230.560, 0.00000E+0, 1.06600E-1, 0.00000E+0, 0.00000E+0,1.00000,1,  100.0,   192.130,    57.640,   1,1.0000
  1077,'1 ',    57.640,    -8.840,    97.800,   -21.330,1.01000,     0,   230.560, 0.00000E+0, 1.53800E-1, 0.00000E+0, 0.00000E+0,1.00000,1,  100.0,   192.130,    57.640,   1,1.0000
  1078,'1 ',     0.000,    16.268,    48.610,   -10.600,1.01000,     0,   114.600, 0.00000E+0, 2.85200E-1, 0.00000E+0, 0.00000E+0,1.00000,0,  100.0,    95.500,    28.650,   1,1.0000
  1079,'1 ',     0.000,   -10.600,    48.610,   -10.600,1.01000,     0,   114.600, 0.00000E+0, 1.72600E-1, 0.00000E+0, 0.00000E+0,1.00000,0,  100.0,    95.500,    28.650,   1,1.0000
  1080,'1 ',     0.000,    13.126,    48.610,   -10.600,1.01000,     0,   114.600, 0.00000E+0, 1.54300E-1, 0.00000E+0, 0.00000E+0,1.00000,0,  100.0,    95.500,    28.650,   1,1.0000
  1081,'1 ',    85.950,   -31.800,   145.830,   -31.800,1.01000,     0,   343.800, 0.00000E+0, 1.49600E-1, 0.00000E+0, 0.00000E+0,1.00000,1,  100.0,   286.500,    85.950,   1,1.0000
  1082,'1 ',    43.317,   -21.600,    31.950,   -21.600,1.00000,     0,   180.000, 0.00000E+0, 1.00000E+0, 0.00000E+0, 0.00000E+0,1.00000,1,  100.0,   150.000,    45.000,   1,1.0000
  1084,'1 ',    33.352,    24.600,    24.600,   -16.630,1.04000,     0,   138.600, 0.00000E+0, 1.00000E+0, 0.00000E+0, 0.00000E+0,1.00000,1,  100.0,   115.500,    34.650,   1,1.0000
  2004,'1 ',   117.540,   -43.490,   199.430,   -43.490,1.02000,     0,   470.160, 0.00000E+0, 1.06400E-1, 0.00000E+0, 0.00000E+0,1.00000,1,  100.0,   391.800,   117.540,   1,1.0000
  2005,'1 ',   117.540,   -43.490,   199.430,   -43.490,1.02000,     0,   470.160, 0.00000E+0, 2.27500E-1, 0.00000E+0, 0.00000E+0,1.00000,1,  100.0,   391.800,   117.540,   1,1.0000
  2006,'1 ',   117.540,   -41.120,   199.430,   -43.490,1.02000,     0,   470.160, 0.00000E+0, 2.00400E-1, 0.00000E+0, 0.00000E+0,1.00000,1,  100.0,   391.800,   117.540,   1,1.0000
  2013,'1 ',    56.092,   -28.890,    42.730,   -28.890,1.00000,     0,   240.720, 0.00000E+0, 1.00000E+0, 0.00000E+0, 0.00000E+0,1.00000,1,  100.0,   200.600,    60.180,   1,1.0000
  2019,'1 ',   145.533,   -20.594,    46.430,   -31.390,1.04000,     0,   261.600, 0.00000E+0, 1.00000E+0, 0.00000E+0, 0.00000E+0,1.00000,1,  100.0,   218.000,    65.400,   1,1.0000
  2023,'1 ',     0.000,    15.439,    42.420,    -9.250,1.02000,     0,   100.000, 0.00000E+0, 2.94400E-1, 0.00000E+0, 0.00000E+0,1.00000,0,  100.0,    83.330,    25.000,   1,1.0000
  2024,'1 ',    50.000,   -18.500,    84.830,   -18.500,1.02000,     0,   200.000, 0.00000E+0, 1.50800E-1, 0.00000E+0, 0.00000E+0,1.00000,1,  100.0,   166.670,    50.000,   1,1.0000
  2042,'1 ',    31.656,   -11.460,    16.950,   -11.460,1.01000,     0,    95.520, 0.00000E+0, 1.00000E+0, 0.00000E+0, 0.00000E+0,1.00000,1,  100.0,    79.600,    23.880,   1,1.0000
  2056,'1 ',     0.000,     0.000,     2.800,    -0.730,0.99000,     0,     7.200, 0.00000E+0, 2.49200E-1, 0.00000E+0, 0.00000E+0,1.00000,0,  100.0,     6.000,     1.800,   1,1.0000
  2057,'1 ',   243.519,  -211.690,   335.520,   -87.840,0.99000,     0,   864.000, 0.00000E+0, 1.77000E-1, 0.00000E+0, 0.00000E+0,1.00000,1,  100.0,   720.000,   216.000,   1,1.0000
  2059,'1 ',    40.055,   -11.520,    17.040,   -11.520,1.00000,     0,    96.000, 0.00000E+0, 1.00000E+0, 0.00000E+0, 0.00000E+0,1.00000,1,  100.0,    80.000,    24.000,   1,1.0000
  2062,'1 ',    69.581,   -18.741,    28.840,   -19.500,1.02000,     0,   162.480, 0.00000E+0, 1.00000E+0, 0.00000E+0, 0.00000E+0,1.00000,1,  100.0,   135.400,    40.620,   1,1.0000
  2071,'1 ',    46.307,   -21.600,    31.950,   -21.600,1.00000,     0,   180.000, 0.00000E+0, 1.00000E+0, 0.00000E+0, 0.00000E+0,1.00000,1,  100.0,   150.000,    45.000,   1,1.0000
  2078,'1 ',    34.732,   -12.035,    23.960,   -16.200,1.02000,     0,   135.000, 0.00000E+0, 1.00000E+0, 0.00000E+0, 0.00000E+0,1.00000,1,  100.0,   112.500,    33.750,   1,1.0000
  2083,'1 ',     0.000,    10.080,    10.180,    -2.220,1.02000,     0,    24.000, 0.00000E+0, 1.64100E-1, 0.00000E+0, 0.00000E+0,1.00000,0,  100.0,    20.000,     6.000,   1,1.0000
  2084,'1 ',     0.000,     0.000,    10.180,    -2.220,1.02000,     0,    24.000, 0.00000E+0, 2.31200E-1, 0.00000E+0, 0.00000E+0,1.00000,0,  100.0,    20.000,     6.000,   1,1.0000
  2085,'1 ',     0.000,     0.000,    20.360,    -4.440,1.02000,     0,    48.000, 0.00000E+0, 2.26900E-1, 0.00000E+0, 0.00000E+0,1.00000,0,  100.0,    40.000,    12.000,   1,1.0000
  2100,'1 ',    65.745,   -21.600,    31.950,   -21.600,1.02000,     0,   180.000, 0.00000E+0, 1.00000E+0, 0.00000E+0, 0.00000E+0,1.00000,1,  100.0,   150.000,    45.000,   1,1.0000
  2103,'1 ',     0.000,     0.000,   136.280,   -29.720,1.00000,     0,   321.280, 0.00000E+0, 3.34300E-1, 0.00000E+0, 0.00000E+0,1.00000,0,  100.0,   267.730,    80.320,   1,1.0000
  2104,'1 ',     0.000,     0.000,   136.280,   -29.720,1.00000,     0,   321.280, 0.00000E+0, 3.14700E-1, 0.00000E+0, 0.00000E+0,1.00000,0,  100.0,   267.730,    80.320,   1,1.0000
  2105,'1 ',     0.000,     0.000,   136.280,   -29.720,1.00000,     0,   321.280, 0.00000E+0, 1.41600E-1, 0.00000E+0, 0.00000E+0,1.00000,0,  100.0,   267.730,    80.320,   1,1.0000
  2115,'1 ',    55.410,   -20.500,    94.020,   -20.500,1.00000,     0,   221.660, 0.00000E+0, 1.42500E-1, 0.00000E+0, 0.00000E+0,1.00000,1,  100.0,   184.720,    55.410,   1,1.0000
  2116,'1 ',    55.410,   -20.500,    94.020,   -20.500,1.00000,     0,   221.660, 0.00000E+0, 1.86900E-1, 0.00000E+0, 0.00000E+0,1.00000,1,  100.0,   184.720,    55.410,   1,1.0000
  2117,'1 ',    55.410,   -20.500,    94.020,   -20.500,1.00000,     0,   221.660, 0.00000E+0, 3.25400E-1, 0.00000E+0, 0.00000E+0,1.00000,1,  100.0,   184.720,    55.410,   1,1.0000
  2118,'1 ',    55.410,   -20.500,    94.020,   -20.500,1.00000,     0,   221.660, 0.00000E+0, 1.06100E-1, 0.00000E+0, 0.00000E+0,1.00000,1,  100.0,   184.720,    55.410,   1,1.0000
  2119,'1 ',    55.410,   -20.500,    94.020,   -20.500,1.00000,     0,   221.660, 0.00000E+0, 1.36000E-1, 0.00000E+0, 0.00000E+0,1.00000,1,  100.0,   184.720,    55.410,   1,1.0000
  2120,'1 ',    55.410,   -20.500,    94.020,   -20.500,1.01000,     0,   221.660, 0.00000E+0, 2.06800E-1, 0.00000E+0, 0.00000E+0,1.00000,1,  100.0,   184.720,    55.410,   1,1.0000
  2123,'1 ',    72.263,   -26.160,    38.700,   -26.160,1.00000,     0,   218.040, 0.00000E+0, 1.00000E+0, 0.00000E+0, 0.00000E+0,1.00000,1,  100.0,   181.700,    54.510,   1,1.0000
  2127,'1 ',   150.889,   -41.560,    61.470,   -41.560,1.04000,     0,   346.320, 0.00000E+0, 1.00000E+0, 0.00000E+0, 0.00000E+0,1.00000,1,  100.0,   288.600,    86.580,   1,1.0000
  3017,'1 ',    48.950,   -14.268,    36.100,   -24.410,1.01000,     0,   203.400, 0.00000E+0, 1.00000E+0, 0.00000E+0, 0.00000E+0,1.00000,1,  100.0,   169.500,    50.850,   1,1.0000
  3020,'1 ',    43.317,    -2.234,    31.950,   -21.600,1.03000,     0,   180.000, 0.00000E+0, 1.00000E+0, 0.00000E+0, 0.00000E+0,1.00000,1,  100.0,   150.000,    45.000,   1,1.0000
  3028,'1 ',    61.742,    -0.051,    42.600,   -28.800,1.04000,     0,   240.000, 0.00000E+0, 1.00000E+0, 0.00000E+0, 0.00000E+0,1.00000,1,  100.0,   200.000,    60.000,   1,1.0000
  3034,'1 ',    37.684,     4.733,    27.800,   -18.790,1.03000,     0,   156.600, 0.00000E+0, 1.00000E+0, 0.00000E+0, 0.00000E+0,1.00000,1,  100.0,   130.500,    39.150,   1,1.0000
  3039,'1 ',    60.354,     4.859,    44.520,   -30.100,1.04000,     0,   250.800, 0.00000E+0, 1.00000E+0, 0.00000E+0, 0.00000E+0,1.00000,1,  100.0,   209.000,    62.700,   1,1.0000
  3043,'1 ',     0.000,     0.000,     0.660,    -0.140,1.04000,     0,     1.560, 0.00000E+0, 2.72800E-1, 0.00000E+0, 0.00000E+0,1.00000,0,  100.0,     1.300,     0.390,   1,1.0000
  3044,'1 ',     0.000,     0.000,    45.500,    -9.920,1.04000,     0,   107.280, 0.00000E+0, 1.70000E-1, 0.00000E+0, 0.00000E+0,1.00000,0,  100.0,    89.400,    26.820,   1,1.0000
  3045,'1 ',   134.100,     1.287,   227.520,   -49.620,1.04000,     0,   536.400, 0.00000E+0, 1.44700E-1, 0.00000E+0, 0.00000E+0,1.00000,1,  100.0,   447.000,   134.100,   1,1.0000
  3048,'1 ',    69.595,   -34.700,    51.330,   -34.700,1.04000,     0,   289.200, 0.00000E+0, 1.00000E+0, 0.00000E+0, 0.00000E+0,1.00000,1,  100.0,   241.000,    72.300,   1,1.0000
  3055,'1 ',    70.801,     3.503,    52.220,   -35.300,1.04000,     0,   294.200, 0.00000E+0, 1.00000E+0, 0.00000E+0, 0.00000E+0,1.00000,1,  100.0,   245.170,    73.550,   1,1.0000
  3056,'1 ',    70.801,     2.350,    52.220,   -35.300,1.04000,     0,   294.200, 0.00000E+0, 1.00000E+0, 0.00000E+0, 0.00000E+0,1.00000,1,  100.0,   245.170,    73.550,   1,1.0000
  3057,'1 ',    70.801,     1.649,    52.220,   -35.300,1.04000,     0,   294.200, 0.00000E+0, 1.00000E+0, 0.00000E+0, 0.00000E+0,1.00000,1,  100.0,   245.170,    73.550,   1,1.0000
  3060,'1 ',    47.829,     1.630,    35.280,   -23.850,1.04000,     0,   198.750, 0.00000E+0, 1.00000E+0, 0.00000E+0, 0.00000E+0,1.00000,1,  100.0,   165.630,    49.690,   1,1.0000
  3061,'1 ',    47.829,     1.883,    35.280,   -23.850,1.04000,     0,   198.750, 0.00000E+0, 1.00000E+0, 0.00000E+0, 0.00000E+0,1.00000,1,  100.0,   165.630,    49.690,   1,1.0000
  3062,'1 ',    47.829,     2.654,    35.280,   -23.850,1.04000,     0,   198.750, 0.00000E+0, 1.00000E+0, 0.00000E+0, 0.00000E+0,1.00000,1,  100.0,   165.630,    49.690,   1,1.0000
  3063,'1 ',    47.829,     1.819,    35.280,   -23.850,1.04000,     0,   198.750, 0.00000E+0, 1.00000E+0, 0.00000E+0, 0.00000E+0,1.00000,1,  100.0,   165.630,    49.690,   1,1.0000
  3068,'1 ',    43.317,    22.592,    31.950,   -21.600,1.04000,     0,   180.000, 0.00000E+0, 1.00000E+0, 0.00000E+0, 0.00000E+0,1.00000,1,  100.0,   150.000,    45.000,   1,1.0000
  3071,'1 ',    49.150,   -24.510,    36.250,   -24.510,1.00000,     0,   204.240, 0.00000E+0, 1.00000E+0, 0.00000E+0, 0.00000E+0,1.00000,1,  100.0,   170.200,    51.060,   1,1.0000
  3081,'1 ',    71.906,     2.562,    53.040,   -35.860,1.04000,     0,   298.800, 0.00000E+0, 1.00000E+0, 0.00000E+0, 0.00000E+0,1.00000,1,  100.0,   249.000,    74.700,   1,1.0000
  3084,'1 ',    67.139,   -33.480,    49.520,   -33.480,1.00000,     0,   279.000, 0.00000E+0, 1.00000E+0, 0.00000E+0, 0.00000E+0,1.00000,1,  100.0,   232.500,    69.750,   1,1.0000
  3092,'1 ',    57.755,     3.107,    42.600,   -28.800,1.04000,     0,   240.000, 0.00000E+0, 1.00000E+0, 0.00000E+0, 0.00000E+0,1.00000,1,  100.0,   200.000,    60.000,   1,1.0000
  3095,'1 ',    34.827,     8.787,    25.690,   -17.370,1.04000,     0,   144.720, 0.00000E+0, 1.00000E+0, 0.00000E+0, 0.00000E+0,1.00000,1,  100.0,   120.600,    36.180,   1,1.0000
  3098,'1 ',    46.204,     3.058,    34.080,   -23.040,1.04000,     0,   192.000, 0.00000E+0, 1.00000E+0, 0.00000E+0, 0.00000E+0,1.00000,1,  100.0,   160.000,    48.000,   1,1.0000
  3106,'1 ',    60.352,   -20.085,    62.477,    -2.690,1.00000,     0,    65.880, 0.00000E+0, 2.92200E-1, 0.00000E+0, 0.00000E+0,1.00000,1,  100.0,   162.800,     0.000,   1,1.0000
  3118,'1 ',    34.653,   -17.280,    25.560,   -17.280,1.00000,     0,   144.000, 0.00000E+0, 1.00000E+0, 0.00000E+0, 0.00000E+0,1.00000,1,  100.0,   120.000,    36.000,   1,1.0000
  3122,'1 ',    56.889,   -19.908,    41.960,   -28.370,1.00000,     0,   236.400, 0.00000E+0, 1.00000E+0, 0.00000E+0, 0.00000E+0,1.00000,1,  100.0,   197.000,    59.100,   1,1.0000
  3127,'1 ',    38.985,   -19.440,    28.760,   -19.440,1.00000,     0,   162.000, 0.00000E+0, 1.00000E+0, 0.00000E+0, 0.00000E+0,1.00000,1,  100.0,   135.000,    40.500,   1,1.0000
  3129,'1 ',    36.532,   -18.220,    26.940,   -18.220,1.00000,     0,   151.800, 0.00000E+0, 1.00000E+0, 0.00000E+0, 0.00000E+0,1.00000,1,  100.0,   126.500,    37.950,   1,1.0000
  3131,'1 ',    32.921,    -7.752,    24.280,   -16.420,1.02000,     0,   136.800, 0.00000E+0, 1.00000E+0, 0.00000E+0, 0.00000E+0,1.00000,1,  100.0,   114.000,    34.200,   1,1.0000
  3133,'1 ',     0.000,    26.110,    26.110,    -5.690,1.04000,     0,    61.560, 0.00000E+0, 1.04700E-1, 0.00000E+0, 0.00000E+0,1.00000,0,  100.0,    51.300,    15.390,   1,1.0000
  4010,'1 ',    58.218,     4.555,    42.940,   -29.030,1.03000,     0,   241.920, 0.00000E+0, 1.00000E+0, 0.00000E+0, 0.00000E+0,1.00000,1,  100.0,   201.600,    60.480,   1,1.0000
  4026,'1 ',   123.000,     6.601,   191.060,   -50.020,1.03000,     0,   492.000, 0.00000E+0, 3.27700E-1, 0.00000E+0, 0.00000E+0,1.00000,1,  100.0,   410.000,   123.000,   1,1.0000
  4030,'1 ',   206.913,   -14.006,   290.040,   -75.930,1.01000,     0,   746.880, 0.00000E+0, 2.79700E-1, 0.00000E+0, 0.00000E+0,1.00000,1,  100.0,   622.400,   186.720,   1,1.0000
  4047,'1 ',    59.825,     3.368,    75.102,    -3.230,1.02000,     0,    79.200, 0.00000E+0, 3.22700E-1, 0.00000E+0, 0.00000E+0,1.00000,1,  100.0,   195.700,     0.000,   1,1.0000
  4050,'1 ',    57.755,   -28.800,    42.600,   -28.800,1.00000,     0,   240.000, 0.00000E+0, 1.00000E+0, 0.00000E+0, 0.00000E+0,1.00000,1,  100.0,   200.000,    60.000,   1,1.0000
  4052,'1 ',     0.000,    22.500,    22.500,    -4.910,1.04000,     0,    53.040, 0.00000E+0, 2.85100E-1, 0.00000E+0, 0.00000E+0,1.00000,0,  100.0,    44.200,    13.260,   1,1.0000
  4058,'1 ',    43.200,    13.036,    73.300,   -15.980,1.03000,     0,   172.800, 0.00000E+0, 1.37000E-1, 0.00000E+0, 0.00000E+0,1.00000,1,  100.0,   144.000,    43.200,   1,1.0000
  4059,'1 ',    43.200,    14.697,    73.300,   -15.980,1.03000,     0,   172.800, 0.00000E+0, 1.51400E-1, 0.00000E+0, 0.00000E+0,1.00000,1,  100.0,   144.000,    43.200,   1,1.0000
  4060,'1 ',    43.200,     9.024,    73.300,   -15.980,1.03000,     0,   172.800, 0.00000E+0, 1.39400E-1, 0.00000E+0, 0.00000E+0,1.00000,1,  100.0,   144.000,    43.200,   1,1.0000
  4061,'1 ',    51.700,    13.131,    87.720,   -19.130,1.03000,     0,   206.800, 0.00000E+0, 2.15600E-1, 0.00000E+0, 0.00000E+0,1.00000,1,  100.0,   172.330,    51.700,   1,1.0000
  4062,'1 ',    51.700,     9.826,    87.720,   -19.130,1.03000,     0,   206.800, 0.00000E+0, 2.59300E-1, 0.00000E+0, 0.00000E+0,1.00000,1,  100.0,   172.330,    51.700,   1,1.0000
  4063,'1 ',    51.700,    13.570,    87.720,   -19.130,1.03000,     0,   206.800, 0.00000E+0, 1.44100E-1, 0.00000E+0, 0.00000E+0,1.00000,1,  100.0,   172.330,    51.700,   1,1.0000
  4065,'1 ',     0.000,    13.408,    23.920,    -5.220,1.02000,     0,    56.400, 0.00000E+0, 1.59200E-1, 0.00000E+0, 0.00000E+0,1.00000,0,  100.0,    47.000,    14.100,   1,1.0000
  4075,'1 ',     0.000,     0.000,    89.750,   -19.570,1.03000,     0,   211.600, 0.00000E+0, 1.19800E-1, 0.00000E+0, 0.00000E+0,1.00000,0,  100.0,   176.330,    52.900,   1,1.0000
  4076,'1 ',     0.000,    23.562,    89.750,   -19.570,1.03000,     0,   211.600, 0.00000E+0, 1.31400E-1, 0.00000E+0, 0.00000E+0,1.00000,0,  100.0,   176.330,    52.900,   1,1.0000
  4077,'1 ',     0.000,    17.974,    89.750,   -19.570,1.03000,     0,   211.600, 0.00000E+0, 2.37300E-1, 0.00000E+0, 0.00000E+0,1.00000,0,  100.0,   176.330,    52.900,   1,1.0000
  4082,'1 ',    73.020,    15.450,   123.890,   -27.020,1.04000,     0,   292.080, 0.00000E+0, 1.38100E-1, 0.00000E+0, 0.00000E+0,1.00000,1,  100.0,   243.400,    73.020,   1,1.0000
  4083,'1 ',    73.020,    16.723,   123.890,   -27.020,1.04000,     0,   292.080, 0.00000E+0, 1.57000E-1, 0.00000E+0, 0.00000E+0,1.00000,1,  100.0,   243.400,    73.020,   1,1.0000
  4084,'1 ',    73.020,    31.268,   123.890,   -27.020,1.04000,     0,   292.080, 0.00000E+0, 1.91100E-1, 0.00000E+0, 0.00000E+0,1.00000,1,  100.0,   243.400,    73.020,   1,1.0000
...